/batch
/config,noeldb,1     ! force off writing results to database
*get,_wallstrt,active,,time,wall
! ANSYS input file written by Workbench version 2024 R1
! File used for geometry attach: D:\github_local\ZZZ_ASMAD_Ansys_Tutorials\Models\Cantilever_beam\Ansys\Cantilever_beam_files\dp0\Geom\DM\Geom.scdoc
/title,Cantilever_beam--Static Structural (B5)
! ****** Begin Custom Load Command Snippet ******
/COM, ACT Extensions:
/COM,     LSDYNA, 2024.1
/COM,     5f463412-bd3e-484b-87e7-cbc0a665e474, wbex
/COM,/COM,     ANSYSMotion, 2024.1
/COM,     20180725-3f81-49eb-9f31-41364844c769, wbex
/COM,
! ****** End   Custom Load Command Snippet ******
*DIM,_wb_ProjectScratch_dir,string,248
_wb_ProjectScratch_dir(1) = 'D:\github_local\ZZZ_ASMAD_Ansys_Tutorials\Models\Cantilever_beam\Ansys\_ProjectScratch\Scr295F\'
*DIM,_wb_SolverFiles_dir,string,248
_wb_SolverFiles_dir(1) = 'D:\github_local\ZZZ_ASMAD_Ansys_Tutorials\Models\Cantilever_beam\Ansys\Cantilever_beam_files\dp0\SYS\MECH\'
*DIM,_wb_userfiles_dir,string,248
_wb_userfiles_dir(1) = 'D:\github_local\ZZZ_ASMAD_Ansys_Tutorials\Models\Cantilever_beam\Ansys\Cantilever_beam_files\user_files\'
/com,--- Data in consistent MKS units. See Solving Units in the help system for more information.
/units,MKS
/nopr
/wb,file,start              !  signify a WB generated input file
/prep7
! Turn off shape checking because checks already performed inside WB mesher.
! See help system for more information.
SHPP,OFF,,NOWARN
/nolist
etcon,set             ! allow ANSYS to choose best KEYOP's for 180x elements, resets any applicable keyopt to MAPDL defaults
/com,*********** Nodes for the whole assembly ***********
nblock,3,,7157
(1i9,3e20.9e3)
        1     5.684210526E-01     9.000000000E-02     6.475087515E-18
        2     5.368421053E-01     9.000000000E-02     6.444961996E-18
        3     5.052631579E-01     9.000000000E-02     6.414836476E-18
        4     4.736842105E-01     9.000000000E-02     6.384710957E-18
        5     4.421052632E-01     9.000000000E-02     6.354585437E-18
        6     4.105263158E-01     9.000000000E-02     6.324459918E-18
        7     3.789473684E-01     9.000000000E-02     6.294334398E-18
        8     3.473684211E-01     9.000000000E-02     6.264208879E-18
        9     3.157894737E-01     9.000000000E-02     6.234083359E-18
       10     2.842105263E-01     9.000000000E-02     6.203957840E-18
       11     2.526315789E-01     9.000000000E-02     6.173832320E-18
       12     2.210526316E-01     9.000000000E-02     6.143706800E-18
       13     1.894736842E-01     9.000000000E-02     6.113581281E-18
       14     1.578947368E-01     9.000000000E-02     6.083455761E-18
       15     1.263157895E-01     9.000000000E-02     6.053330242E-18
       16     9.473684211E-02     9.000000000E-02     6.023204722E-18
       17     6.315789474E-02     9.000000000E-02     5.993079203E-18
       18     3.157894737E-02     9.000000000E-02     5.962953683E-18
       19     5.684210526E-01     7.500000000E-02     4.490502343E-18
       20     5.368421053E-01     7.500000000E-02     4.499635707E-18
! ... 6488 like lines cut
/wb,elem,start            !  set before creation of elements
/com,*********** Elements for Body 1 "Beam" ***********
et,1,186
keyo,1,2,1          ! set full integration on SOLID186
eblock,19,solid,,988
(19i9)
        1        1        1        1        0        0        0        0       20        0        1      557     1855      643      624      575     1860      644      625
     3743     3929     3892     3742     3796     3930     3893     3795     3741     6503     3928     3891
        1        1        1        1        0        0        0        0       20        0        2      557      624      643     1855      558      623      642     1854
     3742     3892     3929     3743     3745     3890     3927     3746     3740     3889     3926     6502
        1        1        1        1        0        0        0        0       20        0        3      558      623      642     1854      559      622      641     1853
     3745     3890     3927     3746     3748     3888     3925     3749     3744     3887     3924     6501
        1        1        1        1        0        0        0        0       20        0        4      559      622      641     1853      560      621      640     1852
     3748     3888     3925     3749     3751     3886     3923     3752     3747     3885     3922     6500
        1        1        1        1        0        0        0        0       20        0        5      560      621      640     1852      561      620      639     1851
     3751     3886     3923     3752     3754     3884     3921     3755     3750     3883     3920     6499
        1        1        1        1        0        0        0        0       20        0        6      561      620      639     1851      562      619      638     1850
     3754     3884     3921     3755     3757     3882     3919     3758     3753     3881     3918     6498
        1        1        1        1        0        0        0        0       20        0        7      562      619      638     1850      563      618      637     1849
     3757     3882     3919     3758     3760     3880     3917     3761     3756     3879     3916     6497
        1        1        1        1        0        0        0        0       20        0        8      563      618      637     1849      564      617      636     1848
     3760     3880     3917     3761     3763     3878     3915     3764     3759     3877     3914     6496
        1        1        1        1        0        0        0        0       20        0        9      564      617      636     1848      565      616      635     1847
     3763     3878     3915     3764     3766     3876     3913     3767     3762     3875     3912     6495
        1        1        1        1        0        0        0        0       20        0       10      565      616      635     1847      566      615      634     1846
     3766     3876     3913     3767     3769     3874     3911     3770     3765     3873     3910     6494
! ... 1957 like lines cut
!Material Id = {6F3BBA44-F84C-40A3-9DF7-2D037D1FBB02}
/wb,elem,end               !  done creating elements
/com,*********** Send User Defined Coordinate System(s) ***********
csys,0
toffst,273.15,  ! Temperature offset from absolute zero
/com,*********** Set Reference Temperature ***********
tref,22.
/wb,mat,start              !  starting to send materials
/com,*********** Send Materials ***********
MP,DENS,1,2790,	! kg m^-3
MP,EX,1,69000000000,	! Pa
MP,NUXY,1,0.33,
MP,UVID,1,eef3a29b-11c0-4826-a602-ebc7d68d3d8b

/wb,mat,end                !  done sending materials
!************************* Model Summary ********************
!Beam,	Al 7075 T6,	matid,	1
!************************* End Model Summary ********************
! get the diagonal of the bounding box. Needed later for other things
*get,_xmin,node,,mnloc,x
*get,_ymin,node,,mnloc,y
*get,_zmin,node,,mnloc,z
*get,_xmax,node,,mxloc,x
*get,_ymax,node,,mxloc,y
*get,_zmax,node,,mxloc,z
_ASMDIAG=(_xmax-_xmin)*(_xmax-_xmin)+(_ymax-_ymin)*(_ymax-_ymin)+(_zmax-_zmin)*(_zmax-_zmin)
_ASMDIAG=SQRT(_ASMDIAG)
/wb,contact,start          !  starting to send contact
/wb,contact,end            !  done creating contacts
/golist
/wb,load,start             !  starting to send loads
/com,*********** Fixed Supports ***********
CMBLOCK,_FIXEDSU,NODE,      237
(8i10)
       248       249       250       251       252       253       254       255
       256       257       258       259       260       261       262       263
       264       265       266       267       268       269       270       271
       272       273       274       275       276       277       278       279
       280       281       282       283       284       285       286       287
       288       289       290       291       292       293       294       295
       296       297       298       299       300       301       302       303
       304       305       306       307       308       309       310       311
       312       313       314       315       316       317       318       319
       320       321       322       323       324       325       326       327
       328       329       330       331       332       333       334       335
       336       337       338       339       340      2868      2869      2870
      2871      2872      2873      2874      2875      2876      2877      2878
      2879      2880      2881      2882      2883      2884      2885      2886
      2887      2888      2889      2890      2891      2892      2893      2894
      2895      2896      2897      2898      2899      2900      2901      2902
      2903      2904      2905      2906      2907      2908      2909      2910
      2912      2913      2915      2916      2918      2919      2921      2922
      2924      2925      2927      2929      2931      2933      2935      2937
      2939      2941      2943      2945      2947      2949      2950      2952
! ... 10 like lines cut
cmsel,s,_FIXEDSU
d,all,all
nsel,all
/com,*********** Define Force Using Surface Effect Elements ***********
local,12,0,0.,0.,0.,0.,0.,0.
csys,0
et,2,154
mat,2
eblock,10,,,28
(15i9)
     2613        2        2        2       12      247     1379     1380     1537     2866     5589     5591     2867
     2614        2        2        2       12      247     1005     1378     1379     2865     4652     5588     2866
     2615        2        2        2       12      247     1537     1736      246     2867     5897     2864     2862
     2616        2        2        2       12      247      246      986     1005     2862     2863     4596     2865
     2617        2        2        2       12      246     1736     1737      245     2864     6294     2861     2859
     2618        2        2        2       12      246      245      985      986     2859     2860     4595     2863
     2619        2        2        2       12      245     1737     1738      244     2861     6295     2858     2856
     2620        2        2        2       12      245      244      984      985     2856     2857     4594     2860
     2621        2        2        2       12      244     1738     1739      243     2858     6296     2855     2853
     2622        2        2        2       12      244      243      983      984     2853     2854     4593     2857
     2623        2        2        2       12      243     1739     1740      242     2855     6297     2852     2850
     2624        2        2        2       12      243      242      982      983     2850     2851     4592     2854
     2625        2        2        2       12      242     1740     1741      241     2852     6298     2849     2847
     2626        2        2        2       12      242      241      981      982     2847     2848     4591     2851
     2627        2        2        2       12      241     1741     1742      240     2849     6299     2846     2844
     2628        2        2        2       12      241      240      980      981     2844     2845     4590     2848
     2629        2        2        2       12      240     1742     1743      239     2846     6300     2843     2841
     2630        2        2        2       12      240      239      979      980     2841     2842     4589     2845
     2631        2        2        2       12      239     1743     1744      238     2843     6301     2840     2838
     2632        2        2        2       12      239      238      978      979     2838     2839     4588     2842
! ... 9 like lines cut
esel,s,type,,2
keyop,2,2,1                ! Apply load in local coordinate system
keyop,2,7,1                ! Use original area so load is constant in large deformation
esel,all
/gst,on,on
fini
*get,_numnode,node,0,count
*get,_numelem,elem,0,count
*get, _MAXELEMNUM, elem, 0, NUM, MAX
*get, _MAXNODENUM, node, 0, NUM, MAX
*get, _MAXELEMTYPE, etyp, 0, NUM, MAX
*get, _MAXREALCONST, rcon, 0, NUM, MAX
/go
/wb,load,end               !  done creating loads
/com,--- Number of total nodes = %_numnode%
/com,--- Number of contact elements = 28
/com,--- Number of spring elements = 0
/com,--- Number of bearing elements = 0
/com,--- Number of solid elements = 988
/com,--- Number of condensed parts = 0
/com,--- Number of total elements = %_numelem%
*get,_wallbsol,active,,time,wall
/com,****************************************************************************
/com,*************************    SOLUTION       ********************************
/com,****************************************************************************
/solu
antype,0                   ! static analysis
_thickRatio=  0     ! Ratio of thick parts in the model
eqsl,sparse,,,,,1
cntr,print,1               ! print out contact info and also make no initial contact an error
cncheck,dmp		!	Enable program controlled contact splitting for distributed memory parallel run
dmpoption,emat,no             ! Don't combine emat file for DANSYS
dmpoption,esav,no             ! Don't combine esav file for DANSYS
nldiag,cont,iter           ! print out contact info each equilibrium iteration
rescontrol,,none                 ! Do not keep any restart files
/com,****************************************************
/com,******************* SOLVE FOR LS 1 OF 1 ****************
esel,s,type,,2
nsle
sfe,all,1,pres,1,0.
sfe,all,2,pres,1,-2058823.52941192
sfe,all,3,pres,1,0.
nsel,all
esel,all
/nopr
/gopr
nsub,1,1,1
time,1.
outres,erase
outres,all,none
outres,nsol,all,
outres,rsol,all
outres,eangl,all
outres,etmp,all
outres,veng,all
outres,strs,all,
outres,epel,all,
outres,eppl,all,
outres,cont,all,
! *********** WB SOLVE COMMAND ***********
! check interactive state
*get,ANSINTER_,active,,int
*if,ANSINTER_,ne,0,then
/eof
*endif
solve
/com *************** Write FE CONNECTORS ********* 
CEWRITE,file,ce,,INTE
/com,****************************************************
/com,*************** FINISHED SOLVE FOR LS 1 *************
*get,_wallasol,active,,time,wall
/nopr
*get,_numnode,node,0,count
*get,_numelem,elem,0,count
*get, _MAXELEMNUM, elem, 0, NUM, MAX
*get, _MAXNODENUM, node, 0, NUM, MAX,,,INTERNAL
*get, _MAXELEMTYPE, etyp, 0, NUM, MAX
*get, _MAXREALCONST, rcon, 0, NUM, MAX
*get,_NSOLTHREADS,active,0,ntfs
*get,_NSOLPROCESSES,active,0,npfs
/gopr
/post1
xmlo,ENCODING,ISO-8859-1
xmlo,parm
/xml,parm,xml
fini
/gopr
*get,_walldone,active,,time,wall
_preptime=(_wallbsol-_wallstrt)*3600
_solvtime=(_wallasol-_wallbsol)*3600
_posttime=(_walldone-_wallasol)*3600
_totaltim=(_walldone-_wallstrt)*3600
*get,_dlbratio,active,0,solu,dlbr
*get,_combtime,active,0,solu,comb
*get,_ssmode,active,0,solu,ssmm
*get,_ndofs,active,0,solu,ndof
*get,_sol_end_time,active,0,set,time
*if,_sol_end_time,eq,1.000000,then
/fclean				!clean distributed files
*endif
/com,--- Total number of nodes = %_numnode%
/com,--- Total number of elements = %_numelem%
/com,--- Element load balance ratio = %_dlbratio%
/com,--- Time to combine distributed files = %_combtime%
/com,--- Sparse memory mode = %_ssmode%
/com,--- Number of DOF = %_ndofs%
/wb,file,end               ! done with WB generated input
